feeders/2_PAL2_1/009_segmentoRamalBT.dss
New Line.RBT_205478 phases=4 bus1=ET2_1035.1.2.3.4 bus2=UC205478.1.2.3.4 linecode=51_4 length=0.013 units=km
New Line.RBT_205479 phases=4 bus1=BT56761.1.2.3.4 bus2=UC205479.1.2.3.4 linecode=51_4 length=0.012 units=km
New Line.RBT_236235 phases=4 bus1=BT132121.1.2.3.4 bus2=UC236235.1.2.3.4 linecode=51_4 length=0.024 units=km
New Line.RBT_238958 phases=2 bus1=BT8531.1.4 bus2=UC238958.1.4 linecode=50_2 length=0.028 units=km
New Line.RBT_205525 phases=2 bus1=BT584671.1.4 bus2=UC205525.1.4 linecode=50_2 length=0.008 units=km
New Line.RBT_219396 phases=2 bus1=BT8531.1.4 bus2=UC219396.1.4 linecode=105_2 length=0.03 units=km
New Line.RBT_205483 phases=4 bus1=BT19001.1.2.3.4 bus2=UC205483.1.2.3.4 linecode=51_4 length=0.008 units=km
New Line.RBT_228383 phases=2 bus1=ET2_1182.1.4 bus2=UC228383.1.4 linecode=108_2 length=0.02948 units=km
New Line.RBT_205480 phases=4 bus1=ET2_1185.1.2.3.4 bus2=UC205480.1.2.3.4 linecode=51_4 length=0.008 units=km
New Line.RBT_205485 phases=4 bus1=ET2_1186.1.2.3.4 bus2=UC205485.1.2.3.4 linecode=51_4 length=0.0204 units=km
New Line.RBT_205506 phases=4 bus1=BT760692.1.2.3.4 bus2=UC205506.1.2.3.4 linecode=51_4 length=0.006 units=km
New Line.RBT_218341 phases=2 bus1=ET2_1195.1.4 bus2=UC218341.1.4 linecode=108_2 length=0.013 units=km
New Line.RBT_221298 phases=2 bus1=ET2_1195.1.4 bus2=UC221298.1.4 linecode=50_2 length=0.018 units=km
New Line.RBT_221684 phases=2 bus1=BT194631.1.4 bus2=UC221684.1.4 linecode=50_2 length=0.03 units=km
New Line.RBT_205593 phases=2 bus1=BT49941.1.4 bus2=UC205593.1.4 linecode=50_2 length=0.017 units=km
New Line.RBT_205595 phases=2 bus1=BT194631.1.4 bus2=UC205595.1.4 linecode=50_2 length=0.023 units=km
New Line.RBT_205609 phases=4 bus1=BT4001.1.2.3.4 bus2=UC205609.1.2.3.4 linecode=51_4 length=0.03 units=km
New Line.RBT_205610 phases=2 bus1=BT62891.1.4 bus2=UC205610.1.4 linecode=50_2 length=0.021 units=km
New Line.RBT_205611 phases=4 bus1=BT62901.1.2.3.4 bus2=UC205611.1.2.3.4 linecode=51_4 length=0.018 units=km
New Line.RBT_205612 phases=4 bus1=BT62841.1.2.3.4 bus2=UC205612.1.2.3.4 linecode=51_4 length=0.017 units=km
New Line.RBT_228122 phases=2 bus1=BT62891.1.4 bus2=UC228122.1.4 linecode=105_2 length=0.03 units=km
New Line.RBT_234956 phases=4 bus1=BT62891.1.2.3.4 bus2=UC234956.1.2.3.4 linecode=109_4 length=0.014 units=km
New Line.RBT_205608 phases=4 bus1=BT4131.1.2.3.4 bus2=UC205608.1.2.3.4 linecode=51_4 length=0.008 units=km
New Line.RBT_205606 phases=2 bus1=BT497781.2.4 bus2=UC205606.2.4 linecode=50_2 length=0.03 units=km
New Line.RBT_227941 phases=2 bus1=BT20681.2.4 bus2=UC227941.2.4 linecode=50_2 length=0.007 units=km
New Line.RBT_225288 phases=2 bus1=BT62031.1.4 bus2=UC225288.1.4 linecode=50_2 length=0.028 units=km
New Line.RBT_225848 phases=2 bus1=BT62031.1.4 bus2=UC225848.1.4 linecode=50_2 length=0.007 units=km
New Line.RBT_225295 phases=2 bus1=BT574651.2.4 bus2=UC225295.2.4 linecode=50_2 length=0.019 units=km
New Line.RBT_205770 phases=2 bus1=BT23411.2.4 bus2=UC205770.2.4 linecode=105_2 length=0.023 units=km
New Line.RBT_205493 phases=2 bus1=BT23371.1.4 bus2=UC205493.1.4 linecode=50_2 length=0.024 units=km
New Line.RBT_205605 phases=3 bus1=ET2_1408.1.2.4 bus2=UC205605.1.2.4 linecode=83_3 length=0.025 units=km
New Line.RBT_205521 phases=2 bus1=ET2_1420.1.4 bus2=UC205521.1.4 linecode=50_2 length=0.004 units=km
New Line.RBT_205466 phases=4 bus1=ET2_1422.1.2.3.4 bus2=UC205466.1.2.3.4 linecode=51_4 length=0.00671 units=km
New Line.RBT_205467 phases=4 bus1=ET2_1423.1.2.3.4 bus2=UC205467.1.2.3.4 linecode=51_4 length=0.00384 units=km
New Line.RBT_205507 phases=2 bus1=BT664771.1.4 bus2=UC205507.1.4 linecode=105_2 length=0.013 units=km
New Line.RBT_205563 phases=2 bus1=BT66331.1.4 bus2=UC205563.1.4 linecode=50_2 length=0.016 units=km
New Line.RBT_205564 phases=2 bus1=BT66361.1.4 bus2=UC205564.1.4 linecode=50_2 length=0.03 units=km
New Line.RBT_223651 phases=2 bus1=BT621011.1.4 bus2=UC223651.1.4 linecode=50_2 length=0.022 units=km
New Line.RBT_233878 phases=2 bus1=BT66331.1.4 bus2=UC233878.1.4 linecode=50_2 length=0.00788 units=km
New Line.RBT_226210 phases=2 bus1=BT58151.2.4 bus2=UC226210.2.4 linecode=105_2 length=0.023 units=km
New Line.RBT_205555 phases=2 bus1=BT9561.2.4 bus2=UC205555.2.4 linecode=50_2 length=0.02 units=km
New Line.RBT_205492 phases=4 bus1=BT622151.1.2.3.4 bus2=UC205492.1.2.3.4 linecode=51_4 length=0.006 units=km
New Line.RBT_217017 phases=2 bus1=ET2_1490.1.4 bus2=UC217017.1.4 linecode=50_2 length=0.01236 units=km
New Line.RBT_226800 phases=4 bus1=BT623331.1.2.3.4 bus2=UC226800.1.2.3.4 linecode=51_4 length=0.015 units=km
New Line.RBT_205512 phases=2 bus1=ET2_1506.1.4 bus2=UC205512.1.4 linecode=50_2 length=0.02158 units=km
New Line.RBT_205578 phases=4 bus1=ET2_1508.1.2.3.4 bus2=UC205578.1.2.3.4 linecode=51_4 length=0.0004 units=km
New Line.RBT_205569 phases=3 bus1=ET2_1523.1.2.4 bus2=UC205569.1.2.4 linecode=83_3 length=0.01127 units=km
New Line.RBT_226234 phases=2 bus1=ET2_1535.1.4 bus2=UC226234.1.4 linecode=50_2 length=0.02736 units=km
New Line.RBT_227074 phases=2 bus1=BT8641.1.4 bus2=UC227074.1.4 linecode=50_2 length=0.007 units=km
New Line.RBT_217001 phases=2 bus1=BT8641.1.4 bus2=UC217001.1.4 linecode=50_2 length=0.028 units=km
New Line.RBT_205534 phases=2 bus1=ET2_1570.2.4 bus2=UC205534.2.4 linecode=50_2 length=0.026 units=km
New Line.RBT_205503 phases=2 bus1=ET2_1572.1.4 bus2=UC205503.1.4 linecode=50_2 length=0.02242 units=km
New Line.RBT_205457 phases=4 bus1=BT518891.1.2.3.4 bus2=UC205457.1.2.3.4 linecode=51_4 length=0.017 units=km
New Line.RBT_205458 phases=4 bus1=ET2_159.1.2.3.4 bus2=UC205458.1.2.3.4 linecode=51_4 length=0.03 units=km
New Line.RBT_205538 phases=2 bus1=BT22341.1.4 bus2=UC205538.1.4 linecode=50_2 length=0.008 units=km
New Line.RBT_205539 phases=2 bus1=ET2_1595.2.4 bus2=UC205539.2.4 linecode=50_2 length=0.03 units=km
New Line.RBT_205772 phases=2 bus1=ET2_1595.2.4 bus2=UC205772.2.4 linecode=50_2 length=0.02948 units=km
New Line.RBT_205462 phases=4 bus1=ET2_160.1.2.3.4 bus2=UC205462.1.2.3.4 linecode=51_4 length=0.01326 units=km
New Line.RBT_205463 phases=4 bus1=BT287831.1.2.3.4 bus2=UC205463.1.2.3.4 linecode=51_4 length=0.002 units=km
New Line.RBT_205464 phases=4 bus1=ET2_162.1.2.3.4 bus2=UC205464.1.2.3.4 linecode=51_4 length=0.03 units=km
New Line.RBT_205465 phases=4 bus1=ET2_163.1.2.3.4 bus2=UC205465.1.2.3.4 linecode=51_4 length=0.03 units=km
New Line.RBT_205468 phases=4 bus1=ET2_164.1.2.3.4 bus2=UC205468.1.2.3.4 linecode=51_4 length=0.03 units=km
New Line.RBT_205535 phases=2 bus1=BT4582.1.4 bus2=UC205535.1.4 linecode=108_2 length=0.025 units=km
New Line.RBT_205779 phases=2 bus1=BT4541.2.4 bus2=UC205779.2.4 linecode=108_2 length=0.02 units=km
New Line.RBT_219378 phases=2 bus1=ET2_1645.1.4 bus2=UC219378.1.4 linecode=108_2 length=0.022 units=km
New Line.RBT_205543 phases=2 bus1=BT9411.1.4 bus2=UC205543.1.4 linecode=50_2 length=0.025 units=km
New Line.RBT_205545 phases=2 bus1=BT8851.2.4 bus2=UC205545.2.4 linecode=50_2 length=0.0222 units=km
New Line.RBT_234136 phases=2 bus1=ET2_1646.2.4 bus2=UC234136.2.4 linecode=50_2 length=0.01685 units=km
New Line.RBT_205471 phases=4 bus1=ET2_165.1.2.3.4 bus2=UC205471.1.2.3.4 linecode=51_4 length=0.004 units=km
New Line.RBT_205472 phases=4 bus1=BT59051.1.2.3.4 bus2=UC205472.1.2.3.4 linecode=51_4 length=0.03 units=km
New Line.RBT_205473 phases=4 bus1=BT756541.1.2.3.4 bus2=UC205473.1.2.3.4 linecode=51_4 length=0.03 units=km
New Line.RBT_231256 phases=3 bus1=BT59031.1.2.4 bus2=UC231256.1.2.4 linecode=83_3 length=0.02538 units=km
New Line.RBT_221673 phases=2 bus1=ET2_1667.1.4 bus2=UC221673.1.4 linecode=50_2 length=0.01592 units=km
New Line.RBT_205781 phases=2 bus1=ET2_1866.1.4 bus2=UC205781.1.4 linecode=50_2 length=0.03 units=km
New Line.RBT_205489 phases=2 bus1=BT21491.1.4 bus2=UC205489.1.4 linecode=50_2 length=0.03 units=km
New Line.RBT_205490 phases=2 bus1=BT21501.2.4 bus2=UC205490.2.4 linecode=50_2 length=0.01 units=km
New Line.RBT_234526 phases=2 bus1=BT21501.2.4 bus2=UC234526.2.4 linecode=50_2 length=0.01474 units=km
New Line.RBT_234133 phases=2 bus1=BT14901.1.4 bus2=UC234133.1.4 linecode=50_2 length=0.01636 units=km
New Line.RBT_225294 phases=2 bus1=BT14951.1.4 bus2=UC225294.1.4 linecode=108_2 length=0.03 units=km
New Line.RBT_206079 phases=2 bus1=ET2_1918.1.4 bus2=UC206079.1.4 linecode=50_2 length=0.01001 units=km
New Line.RBT_205590 phases=2 bus1=BT255181.1.4 bus2=UC205590.1.4 linecode=50_2 length=0.016 units=km
New Line.RBT_205557 phases=4 bus1=ET2_2213.1.2.3.4 bus2=UC205557.1.2.3.4 linecode=51_4 length=0.028 units=km
New Line.RBT_225850 phases=2 bus1=ET2_2213.2.4 bus2=UC225850.2.4 linecode=50_2 length=0.022 units=km
New Line.RBT_227072 phases=2 bus1=BT66181.1.4 bus2=UC227072.1.4 linecode=50_2 length=0.014 units=km
New Line.RBT_218151 phases=3 bus1=ET2_2214.1.2.4 bus2=UC218151.1.2.4 linecode=83_3 length=0.02 units=km
New Line.RBT_218303 phases=2 bus1=ET2_2243.1.4 bus2=UC218303.1.4 linecode=50_2 length=0.00736 units=km
New Line.RBT_205622 phases=2 bus1=ET2_2282.2.4 bus2=UC205622.2.4 linecode=50_2 length=0.01365 units=km
New Line.RBT_226230 phases=2 bus1=ET2_2282.1.4 bus2=UC226230.1.4 linecode=50_2 length=0.01539 units=km
New Line.RBT_233149 phases=2 bus1=BT735081.1.4 bus2=UC233149.1.4 linecode=50_2 length=0.02438 units=km
New Line.RBT_219367 phases=3 bus1=ET2_2431.1.2.4 bus2=UC219367.1.2.4 linecode=83_3 length=0.01814 units=km
New Line.RBT_231934 phases=3 bus1=ET2_2436.1.2.4 bus2=UC231934.1.2.4 linecode=83_3 length=0.007 units=km
New Line.RBT_219387 phases=2 bus1=ET2_2490.1.4 bus2=UC219387.1.4 linecode=50_2 length=0.024 units=km
New Line.RBT_219383 phases=2 bus1=ET2_2491.1.4 bus2=UC219383.1.4 linecode=50_2 length=0.02053 units=km
New Line.RBT_220648 phases=2 bus1=ET2_2629.1.4 bus2=UC220648.1.4 linecode=108_2 length=0.0128 units=km
New Line.RBT_220647 phases=2 bus1=ET2_2630.1.4 bus2=UC220647.1.4 linecode=50_2 length=0.01008 units=km
New Line.RBT_219350 phases=2 bus1=ET2_2673.1.4 bus2=UC219350.1.4 linecode=50_2 length=0.0085 units=km
New Line.RBT_220655 phases=2 bus1=BT451081.1.4 bus2=UC220655.1.4 linecode=50_2 length=0.027 units=km
New Line.RBT_221032 phases=2 bus1=BT447561.2.4 bus2=UC221032.2.4 linecode=50_2 length=0.01 units=km
New Line.RBT_221291 phases=2 bus1=ET2_2694.2.4 bus2=UC221291.2.4 linecode=50_2 length=0.028 units=km
New Line.RBT_220654 phases=2 bus1=ET2_2695.1.4 bus2=UC220654.1.4 linecode=50_2 length=0.01359 units=km
New Line.RBT_225588 phases=2 bus1=ET2_2707.1.4 bus2=UC225588.1.4 linecode=50_2 length=0.00458 units=km
New Line.RBT_230652 phases=2 bus1=BT664851.1.4 bus2=UC230652.1.4 linecode=50_2 length=0.03 units=km
New Line.RBT_205529 phases=2 bus1=BT66141.2.4 bus2=UC205529.2.4 linecode=108_2 length=0.03 units=km
New Line.RBT_205596 phases=2 bus1=BT49971.2.4 bus2=UC205596.2.4 linecode=108_2 length=0.029 units=km
New Line.RBT_205598 phases=2 bus1=ET2_2802.1.4 bus2=UC205598.1.4 linecode=108_2 length=0.02978 units=km
New Line.RBT_227070 phases=2 bus1=BT622911.1.4 bus2=UC227070.1.4 linecode=105_2 length=0.028 units=km
New Line.RBT_231258 phases=2 bus1=BT622911.1.4 bus2=UC231258.1.4 linecode=50_2 length=0.01351 units=km
New Line.RBT_232525 phases=2 bus1=ET2_2802.1.4 bus2=UC232525.1.4 linecode=50_2 length=0.01294 units=km
New Line.RBT_226223 phases=2 bus1=BT622911.1.4 bus2=UC226223.1.4 linecode=50_2 length=0.022 units=km
New Line.RBT_221682 phases=2 bus1=ET2_2816.1.4 bus2=UC221682.1.4 linecode=50_2 length=0.0247 units=km
New Line.RBT_221685 phases=3 bus1=ET2_2837.1.2.4 bus2=UC221685.1.2.4 linecode=83_3 length=0.01044 units=km
New Line.RBT_230654 phases=3 bus1=ET2_2837.1.2.4 bus2=UC230654.1.2.4 linecode=83_3 length=0.01099 units=km
New Line.RBT_205594 phases=3 bus1=ET2_2837.1.2.4 bus2=UC205594.1.2.4 linecode=83_3 length=0.012 units=km
New Line.RBT_221700 phases=3 bus1=ET2_2877.1.2.4 bus2=UC221700.1.2.4 linecode=83_3 length=0.0086 units=km
New Line.RBT_205474 phases=4 bus1=ET2_295.1.2.3.4 bus2=UC205474.1.2.3.4 linecode=51_4 length=0.00358 units=km
New Line.RBT_205530 phases=2 bus1=BT66101.1.4 bus2=UC205530.1.4 linecode=50_2 length=0.021 units=km
New Line.RBT_205531 phases=2 bus1=BT66111.2.4 bus2=UC205531.2.4 linecode=105_2 length=0.03 units=km
New Line.RBT_220656 phases=2 bus1=BT66111.2.4 bus2=UC220656.2.4 linecode=50_2 length=0.027 units=km
New Line.RBT_205603 phases=2 bus1=ET2_3037.1.4 bus2=UC205603.1.4 linecode=105_2 length=0.029 units=km
New Line.RBT_205461 phases=4 bus1=BT476081.1.2.3.4 bus2=UC205461.1.2.3.4 linecode=51_4 length=0.01492 units=km
New Line.RBT_223478 phases=2 bus1=BT476081.3.4 bus2=UC223478.3.4 linecode=50_2 length=0.006 units=km
New Line.RBT_223479 phases=2 bus1=BT476071.3.4 bus2=UC223479.3.4 linecode=50_2 length=0.007 units=km
New Line.RBT_223483 phases=4 bus1=BT476051.1.2.3.4 bus2=UC223483.1.2.3.4 linecode=51_4 length=0.00496 units=km
New Line.RBT_223484 phases=4 bus1=BT476041.1.2.3.4 bus2=UC223484.1.2.3.4 linecode=51_4 length=0.011 units=km
New Line.RBT_223446 phases=2 bus1=ET2_3144.1.4 bus2=UC223446.1.4 linecode=50_2 length=0.00578 units=km
New Line.RBT_223473 phases=2 bus1=BT618881.1.4 bus2=UC223473.1.4 linecode=105_2 length=0.011 units=km
New Line.RBT_225598 phases=2 bus1=ET2_3153.1.4 bus2=UC225598.1.4 linecode=50_2 length=0.019 units=km
New Line.RBT_223459 phases=2 bus1=BT618911.1.4 bus2=UC223459.1.4 linecode=105_2 length=0.021 units=km
New Line.RBT_223460 phases=2 bus1=BT618921.2.4 bus2=UC223460.2.4 linecode=50_2 length=0.016 units=km
New Line.RBT_223456 phases=2 bus1=ET2_3154.1.4 bus2=UC223456.1.4 linecode=50_2 length=0.02 units=km
New Line.RBT_223457 phases=2 bus1=BT599791.2.4 bus2=UC223457.2.4 linecode=50_2 length=0.01 units=km
New Line.RBT_223458 phases=2 bus1=BT599701.1.4 bus2=UC223458.1.4 linecode=50_2 length=0.015 units=km
New Line.RBT_223470 phases=2 bus1=BT599761.1.4 bus2=UC223470.1.4 linecode=50_2 length=0.02 units=km
New Line.RBT_223455 phases=2 bus1=ET2_3155.2.4 bus2=UC223455.2.4 linecode=50_2 length=0.03 units=km
New Line.RBT_223471 phases=2 bus1=BT618781.1.4 bus2=UC223471.1.4 linecode=50_2 length=0.024 units=km
New Line.RBT_223449 phases=3 bus1=BT618791.1.2.4 bus2=UC223449.1.2.4 linecode=110_3 length=0.012 units=km
New Line.RBT_223453 phases=2 bus1=BT614801.2.4 bus2=UC223453.2.4 linecode=105_2 length=0.012 units=km
New Line.RBT_223454 phases=2 bus1=BT618771.1.4 bus2=UC223454.1.4 linecode=105_2 length=0.005 units=km
New Line.RBT_223461 phases=2 bus1=BT618781.2.4 bus2=UC223461.2.4 linecode=105_2 length=0.026 units=km
New Line.RBT_223462 phases=3 bus1=BT598741.1.2.4 bus2=UC223462.1.2.4 linecode=110_3 length=0.012 units=km
New Line.RBT_223448 phases=2 bus1=BT598721.1.4 bus2=UC223448.1.4 linecode=50_2 length=0.029 units=km
New Line.RBT_223472 phases=2 bus1=ET2_3158.2.4 bus2=UC223472.2.4 linecode=50_2 length=0.01268 units=km
New Line.RBT_223475 phases=2 bus1=BT600011.2.4 bus2=UC223475.2.4 linecode=50_2 length=0.011 units=km
New Line.RBT_223463 phases=2 bus1=BT599991.1.4 bus2=UC223463.1.4 linecode=50_2 length=0.011 units=km
New Line.RBT_237355 phases=3 bus1=BT600011.1.2.4 bus2=UC237355.1.2.4 linecode=83_3 length=0.02 units=km
New Line.RBT_223464 phases=2 bus1=BT600111.1.4 bus2=UC223464.1.4 linecode=50_2 length=0.016 units=km
New Line.RBT_223465 phases=2 bus1=BT600181.2.4 bus2=UC223465.2.4 linecode=50_2 length=0.016 units=km
New Line.RBT_223476 phases=2 bus1=ET2_3159.1.4 bus2=UC223476.1.4 linecode=105_2 length=0.024 units=km
New Line.RBT_223466 phases=2 bus1=ET2_3160.1.4 bus2=UC223466.1.4 linecode=50_2 length=0.01953 units=km
New Line.RBT_223467 phases=2 bus1=BT600061.2.4 bus2=UC223467.2.4 linecode=50_2 length=0.006 units=km
New Line.RBT_223468 phases=2 bus1=BT600071.1.4 bus2=UC223468.1.4 linecode=50_2 length=0.014 units=km
New Line.RBT_205587 phases=4 bus1=ET2_317.1.2.3.4 bus2=UC205587.1.2.3.4 linecode=51_4 length=0.00286 units=km
New Line.RBT_223624 phases=3 bus1=ET2_3182.1.2.4 bus2=UC223624.1.2.4 linecode=83_3 length=0.02113 units=km
New Line.RBT_225292 phases=2 bus1=ET2_3205.1.4 bus2=UC225292.1.4 linecode=50_2 length=0.00972 units=km
New Line.RBT_225283 phases=2 bus1=ET2_3351.1.4 bus2=UC225283.1.4 linecode=50_2 length=0.0207 units=km
New Line.RBT_225583 phases=2 bus1=ET2_3363.1.4 bus2=UC225583.1.4 linecode=50_2 length=0.01097 units=km
New Line.RBT_225586 phases=2 bus1=ET2_3365.1.4 bus2=UC225586.1.4 linecode=50_2 length=0.00805 units=km
New Line.RBT_205495 phases=4 bus1=BT458401.1.2.3.4 bus2=UC205495.1.2.3.4 linecode=51_4 length=0.003 units=km
New Line.RBT_205496 phases=4 bus1=BT23561.1.2.3.4 bus2=UC205496.1.2.3.4 linecode=51_4 length=0.022 units=km
New Line.RBT_205501 phases=3 bus1=ET2_341.1.2.4 bus2=UC205501.1.2.4 linecode=83_3 length=0.029 units=km
New Line.RBT_205547 phases=3 bus1=ET2_3413.1.2.4 bus2=UC205547.1.2.4 linecode=83_3 length=0.01355 units=km
New Line.RBT_205505 phases=4 bus1=BT664711.1.2.3.4 bus2=UC205505.1.2.3.4 linecode=51_4 length=0.004 units=km
New Line.RBT_205509 phases=4 bus1=ET2_343.1.2.3.4 bus2=UC205509.1.2.3.4 linecode=51_4 length=0.03 units=km
New Line.RBT_205591 phases=2 bus1=BT351391.2.4 bus2=UC205591.2.4 linecode=108_2 length=0.018 units=km
New Line.RBT_205592 phases=2 bus1=BT351401.1.4 bus2=UC205592.1.4 linecode=108_2 length=0.01 units=km
New Line.RBT_221675 phases=2 bus1=BT351401.2.4 bus2=UC221675.2.4 linecode=50_2 length=0.03 units=km
New Line.RBT_205568 phases=4 bus1=ET2_345.1.2.3.4 bus2=UC205568.1.2.3.4 linecode=51_4 length=0.003 units=km
New Line.RBT_219382 phases=4 bus1=BT65431.1.2.3.4 bus2=UC219382.1.2.3.4 linecode=51_4 length=0.003 units=km
New Line.RBT_221686 phases=2 bus1=ET2_346.1.4 bus2=UC221686.1.4 linecode=50_2 length=0.01057 units=km
New Line.RBT_221293 phases=2 bus1=BT9581.2.4 bus2=UC221293.2.4 linecode=105_2 length=0.024 units=km
New Line.RBT_221294 phases=2 bus1=BT451831.1.4 bus2=UC221294.1.4 linecode=50_2 length=0.008 units=km
New Line.RBT_205558 phases=2 bus1=BT66201.1.4 bus2=UC205558.1.4 linecode=105_2 length=0.026 units=km
New Line.RBT_205562 phases=4 bus1=BT66281.1.2.3.4 bus2=UC205562.1.2.3.4 linecode=51_4 length=0.01051 units=km
New Line.RBT_205516 phases=4 bus1=BT55671.1.2.3.4 bus2=UC205516.1.2.3.4 linecode=51_4 length=0.005 units=km
New Line.RBT_206014 phases=4 bus1=BT360581.1.2.3.4 bus2=UC206014.1.2.3.4 linecode=51_4 length=0.005 units=km
New Line.RBT_235369 phases=4 bus1=BT75571.1.2.3.4 bus2=UC235369.1.2.3.4 linecode=51_4 length=0.025 units=km
New Line.RBT_235968 phases=2 bus1=BT55661.1.4 bus2=UC235968.1.4 linecode=50_2 length=0.024 units=km
New Line.RBT_205517 phases=2 bus1=BT74601.1.4 bus2=UC205517.1.4 linecode=50_2 length=0.01698 units=km
New Line.RBT_205484 phases=4 bus1=BT628711.1.2.3.4 bus2=UC205484.1.2.3.4 linecode=51_4 length=0.006 units=km
New Line.RBT_205570 phases=3 bus1=ET2_353.1.2.4 bus2=UC205570.1.2.4 linecode=83_3 length=0.007 units=km
New Line.RBT_233385 phases=2 bus1=BT302121.1.4 bus2=UC233385.1.4 linecode=50_2 length=0.03 units=km
New Line.RBT_226221 phases=2 bus1=ET2_3535.1.4 bus2=UC226221.1.4 linecode=50_2 length=0.01181 units=km
New Line.RBT_205574 phases=3 bus1=ET2_354.1.2.4 bus2=UC205574.1.2.4 linecode=83_3 length=0.02043 units=km
New Line.RBT_226219 phases=2 bus1=ET2_3540.1.4 bus2=UC226219.1.4 linecode=50_2 length=0.01378 units=km
New Line.RBT_226228 phases=2 bus1=ET2_3543.1.4 bus2=UC226228.1.4 linecode=50_2 length=0.01773 units=km
New Line.RBT_226214 phases=2 bus1=ET2_3544.1.4 bus2=UC226214.1.4 linecode=50_2 length=0.01193 units=km
New Line.RBT_205602 phases=3 bus1=ET2_3552.1.2.4 bus2=UC205602.1.2.4 linecode=83_3 length=0.01941 units=km
New Line.RBT_205451 phases=4 bus1=ET2_357.1.2.3.4 bus2=UC205451.1.2.3.4 linecode=51_4 length=0.007 units=km
New Line.RBT_226238 phases=2 bus1=ET2_3570.1.4 bus2=UC226238.1.4 linecode=50_2 length=0.00627 units=km
New Line.RBT_227071 phases=2 bus1=ET2_3589.1.4 bus2=UC227071.1.4 linecode=50_2 length=0.02095 units=km
New Line.RBT_227076 phases=2 bus1=ET2_3594.1.4 bus2=UC227076.1.4 linecode=50_2 length=0.00837 units=km
New Line.RBT_228382 phases=2 bus1=ET2_3594.2.4 bus2=UC228382.2.4 linecode=50_2 length=0.01381 units=km
New Line.RBT_235699 phases=2 bus1=ET2_3594.1.4 bus2=UC235699.1.4 linecode=108_2 length=0.023 units=km
New Line.RBT_227080 phases=2 bus1=BT583591.1.4 bus2=UC227080.1.4 linecode=50_2 length=0.017 units=km
New Line.RBT_205536 phases=2 bus1=ET2_3596.1.4 bus2=UC205536.1.4 linecode=108_2 length=0.03 units=km
New Line.RBT_205643 phases=4 bus1=ET2_363.1.2.3.4 bus2=UC205643.1.2.3.4 linecode=51_4 length=0.001 units=km
New Line.RBT_205641 phases=4 bus1=ET2_365.1.2.3.4 bus2=UC205641.1.2.3.4 linecode=51_4 length=0.00291 units=km
New Line.RBT_205640 phases=4 bus1=ET2_366.1.2.3.4 bus2=UC205640.1.2.3.4 linecode=51_4 length=0.03 units=km
New Line.RBT_227084 phases=2 bus1=BT602531.1.4 bus2=UC227084.1.4 linecode=50_2 length=0.008 units=km
New Line.RBT_227085 phases=2 bus1=ET2_3668.1.4 bus2=UC227085.1.4 linecode=50_2 length=0.02572 units=km
New Line.RBT_227094 phases=2 bus1=BT602541.1.4 bus2=UC227094.1.4 linecode=50_2 length=0.023 units=km
New Line.RBT_233384 phases=4 bus1=BT50901.1.2.3.4 bus2=UC233384.1.2.3.4 linecode=51_4 length=0.03 units=km
New Line.RBT_205627 phases=4 bus1=BT50901.1.2.3.4 bus2=UC205627.1.2.3.4 linecode=51_4 length=0.004 units=km
New Line.RBT_205626 phases=4 bus1=ET2_368.1.2.3.4 bus2=UC205626.1.2.3.4 linecode=51_4 length=0.03 units=km
New Line.RBT_205628 phases=4 bus1=ET2_369.1.2.3.4 bus2=UC205628.1.2.3.4 linecode=51_4 length=0.005 units=km
New Line.RBT_227098 phases=2 bus1=ET2_3699.1.4 bus2=UC227098.1.4 linecode=50_2 length=0.00531 units=km
New Line.RBT_205524 phases=3 bus1=ET2_3704.1.2.4 bus2=UC205524.1.2.4 linecode=83_3 length=0.02957 units=km
New Line.RBT_205623 phases=4 bus1=ET2_371.1.2.3.4 bus2=UC205623.1.2.3.4 linecode=51_4 length=0.03 units=km
New Line.RBT_205631 phases=4 bus1=BT46501.1.2.3.4 bus2=UC205631.1.2.3.4 linecode=51_4 length=0.03 units=km
New Line.RBT_205632 phases=3 bus1=BT46481.1.2.4 bus2=UC205632.1.2.4 linecode=83_3 length=0.01808 units=km
New Line.RBT_205633 phases=2 bus1=BT46491.2.4 bus2=UC205633.2.4 linecode=108_2 length=0.03 units=km
New Line.RBT_205636 phases=2 bus1=ET2_372.3.4 bus2=UC205636.3.4 linecode=108_2 length=0.022 units=km
New Line.RBT_205637 phases=4 bus1=BT46461.1.2.3.4 bus2=UC205637.1.2.3.4 linecode=51_4 length=0.004 units=km
New Line.RBT_227087 phases=2 bus1=ET2_372.1.4 bus2=UC227087.1.4 linecode=108_2 length=0.026 units=km
New Line.RBT_227069 phases=2 bus1=BT46481.1.4 bus2=UC227069.1.4 linecode=50_2 length=0.016 units=km
New Line.RBT_232526 phases=4 bus1=BT46481.1.2.3.4 bus2=UC232526.1.2.3.4 linecode=51_4 length=0.02122 units=km
New Line.RBT_221029 phases=2 bus1=BT304091.1.4 bus2=UC221029.1.4 linecode=50_2 length=0.008 units=km
New Line.RBT_221696 phases=4 bus1=BT277541.1.2.3.4 bus2=UC221696.1.2.3.4 linecode=51_4 length=0.01044 units=km
New Line.RBT_218325 phases=2 bus1=BT44521.1.4 bus2=UC218325.1.4 linecode=50_2 length=0.00837 units=km
New Line.RBT_205572 phases=4 bus1=BT44521.1.2.3.4 bus2=UC205572.1.2.3.4 linecode=51_4 length=0.01062 units=km
New Line.RBT_205573 phases=2 bus1=BT772391.1.4 bus2=UC205573.1.4 linecode=50_2 length=0.018 units=km
New Line.RBT_236302 phases=3 bus1=BT772401.1.2.4 bus2=UC236302.1.2.4 linecode=83_3 length=0.028 units=km
New Line.RBT_228390 phases=2 bus1=ET2_3907.1.4 bus2=UC228390.1.4 linecode=105_2 length=0.007 units=km
New Line.RBT_230659 phases=4 bus1=ET2_3907.1.2.3.4 bus2=UC230659.1.2.3.4 linecode=51_4 length=0.01587 units=km
New Line.RBT_228514 phases=4 bus1=ET2_4090.1.2.3.4 bus2=UC228514.1.2.3.4 linecode=51_4 length=0.00443 units=km
New Line.RBT_230658 phases=4 bus1=BT711651.1.2.3.4 bus2=UC230658.1.2.3.4 linecode=109_4 length=0.018 units=km
New Line.RBT_221690 phases=2 bus1=BT325201.1.4 bus2=UC221690.1.4 linecode=50_2 length=0.029 units=km
New Line.RBT_226220 phases=2 bus1=BT325201.2.4 bus2=UC226220.2.4 linecode=50_2 length=0.027 units=km
New Line.RBT_205577 phases=4 bus1=ET2_417.1.2.3.4 bus2=UC205577.1.2.3.4 linecode=51_4 length=0.00512 units=km
New Line.RBT_228502 phases=4 bus1=ET2_4184.1.2.3.4 bus2=UC228502.1.2.3.4 linecode=51_4 length=0.0129 units=km
New Line.RBT_234140 phases=4 bus1=ET2_4184.1.2.3.4 bus2=UC234140.1.2.3.4 linecode=51_4 length=0.00507 units=km
New Line.RBT_221027 phases=2 bus1=BT62101.1.4 bus2=UC221027.1.4 linecode=50_2 length=0.014 units=km
New Line.RBT_205599 phases=2 bus1=ET2_4254.1.4 bus2=UC205599.1.4 linecode=50_2 length=0.017 units=km
New Line.RBT_230552 phases=4 bus1=ET2_4256.1.2.3.4 bus2=UC230552.1.2.3.4 linecode=51_4 length=0.003 units=km
New Line.RBT_205469 phases=4 bus1=ET2_430.1.2.3.4 bus2=UC205469.1.2.3.4 linecode=51_4 length=0.00184 units=km
New Line.RBT_232523 phases=2 bus1=ET2_4440.2.4 bus2=UC232523.2.4 linecode=105_2 length=0.006 units=km
New Line.RBT_221024 phases=3 bus1=ET2_4440.1.2.4 bus2=UC221024.1.2.4 linecode=83_3 length=0.02496 units=km
New Line.RBT_205515 phases=4 bus1=ET2_445.1.2.3.4 bus2=UC205515.1.2.3.4 linecode=51_4 length=0.006 units=km
New Line.RBT_205499 phases=4 bus1=ET2_446.1.2.3.4 bus2=UC205499.1.2.3.4 linecode=51_4 length=0.00382 units=km
New Line.RBT_205565 phases=2 bus1=BT66371.2.4 bus2=UC205565.2.4 linecode=50_2 length=0.03 units=km
New Line.RBT_205566 phases=3 bus1=BT720441.1.2.4 bus2=UC205566.1.2.4 linecode=83_3 length=0.02645 units=km
New Line.RBT_205773 phases=2 bus1=BT66371.1.4 bus2=UC205773.1.4 linecode=108_2 length=0.0238 units=km
New Line.RBT_237352 phases=2 bus1=BT720441.2.4 bus2=UC237352.2.4 linecode=105_2 length=0.02 units=km
New Line.RBT_230660 phases=4 bus1=ET2_4494.1.2.3.4 bus2=UC230660.1.2.3.4 linecode=51_4 length=0.03 units=km
New Line.RBT_205576 phases=4 bus1=ET2_4508.1.2.3.4 bus2=UC205576.1.2.3.4 linecode=51_4 length=0.006 units=km
New Line.RBT_205549 phases=2 bus1=ET2_4546.2.4 bus2=UC205549.2.4 linecode=50_2 length=0.0041 units=km
New Line.RBT_231249 phases=4 bus1=ET2_4547.1.2.3.4 bus2=UC231249.1.2.3.4 linecode=51_4 length=0.0069 units=km
New Line.RBT_231250 phases=2 bus1=ET2_4553.1.4 bus2=UC231250.1.4 linecode=50_2 length=0.02836 units=km
New Line.RBT_205452 phases=4 bus1=ET2_4641.1.2.3.4 bus2=UC205452.1.2.3.4 linecode=51_4 length=0.004 units=km
New Line.RBT_205583 phases=4 bus1=ET2_4642.1.2.3.4 bus2=UC205583.1.2.3.4 linecode=51_4 length=0.00213 units=km
New Line.RBT_205453 phases=4 bus1=ET2_4643.1.2.3.4 bus2=UC205453.1.2.3.4 linecode=51_4 length=0.019 units=km
New Line.RBT_220651 phases=4 bus1=ET2_4646.1.2.3.4 bus2=UC220651.1.2.3.4 linecode=51_4 length=0.00323 units=km
New Line.RBT_205586 phases=4 bus1=BT58441.1.2.3.4 bus2=UC205586.1.2.3.4 linecode=51_4 length=0.003 units=km
New Line.RBT_205508 phases=4 bus1=ET2_4822.1.2.3.4 bus2=UC205508.1.2.3.4 linecode=51_4 length=0.00521 units=km
New Line.RBT_205541 phases=2 bus1=ET2_4866.1.4 bus2=UC205541.1.4 linecode=105_2 length=0.007 units=km
New Line.RBT_228392 phases=4 bus1=ET2_4881.1.2.3.4 bus2=UC228392.1.2.3.4 linecode=51_4 length=0.00425 units=km
New Line.RBT_231939 phases=4 bus1=ET2_4903.1.2.3.4 bus2=UC231939.1.2.3.4 linecode=51_4 length=0.00874 units=km
New Line.RBT_232522 phases=2 bus1=ET2_4966.1.4 bus2=UC232522.1.4 linecode=50_2 length=0.01225 units=km
New Line.RBT_232527 phases=3 bus1=ET2_4983.1.2.4 bus2=UC232527.1.2.4 linecode=83_3 length=0.03 units=km
New Line.RBT_233147 phases=3 bus1=ET2_5009.1.2.4 bus2=UC233147.1.2.4 linecode=83_3 length=0.02734 units=km
New Line.RBT_221300 phases=3 bus1=ET2_5099.1.2.4 bus2=UC221300.1.2.4 linecode=83_3 length=0.03 units=km
New Line.RBT_233382 phases=4 bus1=BT49881.1.2.3.4 bus2=UC233382.1.2.3.4 linecode=51_4 length=0.01041 units=km
New Line.RBT_231252 phases=2 bus1=BT49891.1.4 bus2=UC231252.1.4 linecode=50_2 length=0.01626 units=km
New Line.RBT_227083 phases=2 bus1=BT49891.1.4 bus2=UC227083.1.4 linecode=50_2 length=0.02062 units=km
New Line.RBT_234528 phases=4 bus1=ET2_5206.1.2.3.4 bus2=UC234528.1.2.3.4 linecode=51_4 length=0.02982 units=km
New Line.RBT_236231 phases=4 bus1=BT638271.1.2.3.4 bus2=UC236231.1.2.3.4 linecode=109_4 length=0.03 units=km
New Line.RBT_205589 phases=3 bus1=BT156261.1.2.4 bus2=UC205589.1.2.4 linecode=83_3 length=0.013 units=km
New Line.RBT_235584 phases=2 bus1=BT693401.1.4 bus2=UC235584.1.4 linecode=108_2 length=0.007 units=km
New Line.RBT_234951 phases=2 bus1=ET2_5265.1.4 bus2=UC234951.1.4 linecode=108_2 length=0.03 units=km
New Line.RBT_234952 phases=2 bus1=BT693421.1.4 bus2=UC234952.1.4 linecode=50_2 length=0.023 units=km
New Line.RBT_233390 phases=2 bus1=ET2_5265.1.4 bus2=UC233390.1.4 linecode=50_2 length=0.00332 units=km
New Line.RBT_283876 phases=4 bus1=BT766701.1.2.3.4 bus2=UC283876.1.2.3.4 linecode=51_4 length=0.0189 units=km
New Line.RBT_205537 phases=3 bus1=BT22361.1.2.4 bus2=UC205537.1.2.4 linecode=83_3 length=0.01846 units=km
New Line.RBT_233874 phases=4 bus1=ET2_5382.1.2.3.4 bus2=UC233874.1.2.3.4 linecode=51_4 length=0.00642 units=km
New Line.RBT_238204 phases=4 bus1=ET2_5391.1.2.3.4 bus2=UC238204.1.2.3.4 linecode=51_4 length=0.03 units=km
New Line.RBT_235367 phases=2 bus1=ET2_5506.1.4 bus2=UC235367.1.4 linecode=108_2 length=0.018 units=km
New Line.RBT_235363 phases=4 bus1=ET2_5590.1.2.3.4 bus2=UC235363.1.2.3.4 linecode=51_4 length=0.026 units=km
New Line.RBT_235365 phases=4 bus1=ET2_5593.1.2.3.4 bus2=UC235365.1.2.3.4 linecode=109_4 length=0.015 units=km
New Line.RBT_205514 phases=4 bus1=BT75641.1.2.3.4 bus2=UC205514.1.2.3.4 linecode=51_4 length=0.021 units=km
New Line.RBT_237168 phases=4 bus1=ET2_6035.1.2.3.4 bus2=UC237168.1.2.3.4 linecode=51_4 length=0.03 units=km
New Line.RBT_237164 phases=2 bus1=ET2_6066.1.4 bus2=UC237164.1.4 linecode=105_2 length=0.005 units=km
New Line.RBT_237163 phases=3 bus1=ET2_6068.1.2.4 bus2=UC237163.1.2.4 linecode=83_3 length=0.03 units=km
New Line.RBT_2037169 phases=4 bus1=ET2_6103.1.2.3.4 bus2=UC2037169.1.2.3.4 linecode=51_4 length=0.03 units=km
New Line.RBT_207170 phases=4 bus1=ET2_6170.1.2.3.4 bus2=UC207170.1.2.3.4 linecode=51_4 length=0.03 units=km
New Line.RBT_228377 phases=2 bus1=BT582341.1.4 bus2=UC228377.1.4 linecode=50_2 length=0.0062 units=km
New Line.RBT_238211 phases=2 bus1=BT587931.1.4 bus2=UC238211.1.4 linecode=105_2 length=0.025 units=km
New Line.RBT_232529 phases=3 bus1=BT724632.1.2.4 bus2=UC232529.1.2.4 linecode=110_3 length=0.0202 units=km
New Line.RBT_238955 phases=4 bus1=ET2_6432.1.2.3.4 bus2=UC238955.1.2.3.4 linecode=51_4 length=0.014 units=km
New Line.RBT_205642 phases=4 bus1=ET2_6481.1.2.3.4 bus2=UC205642.1.2.3.4 linecode=51_4 length=0.005 units=km
New Line.RBT_205588 phases=4 bus1=ET2_779.1.2.3.4 bus2=UC205588.1.2.3.4 linecode=51_4 length=0.00383 units=km
New Line.RBT_205619 phases=2 bus1=BT24611.2.4 bus2=UC205619.2.4 linecode=50_2 length=0.025 units=km
New Line.RBT_205620 phases=4 bus1=BT65551.1.2.3.4 bus2=UC205620.1.2.3.4 linecode=51_4 length=0.01 units=km
New Line.RBT_218327 phases=2 bus1=BT65551.2.4 bus2=UC218327.2.4 linecode=108_2 length=0.02548 units=km
New Line.RBT_219398 phases=2 bus1=BT5361.2.4 bus2=UC219398.2.4 linecode=50_2 length=0.014 units=km
New Line.RBT_205616 phases=2 bus1=BT64721.1.4 bus2=UC205616.1.4 linecode=50_2 length=0.02 units=km
New Line.RBT_205617 phases=3 bus1=BT5321.1.2.4 bus2=UC205617.1.2.4 linecode=83_3 length=0.006 units=km
New Line.RBT_230303 phases=2 bus1=BT662481.1.4 bus2=UC230303.1.4 linecode=50_2 length=0.007 units=km
New Line.RBT_205459 phases=3 bus1=ET2_830.1.2.4 bus2=UC205459.1.2.4 linecode=83_3 length=0.0099 units=km
New Line.RBT_219365 phases=2 bus1=BT344141.1.4 bus2=UC219365.1.4 linecode=50_2 length=0.03 units=km
New Line.RBT_206065 phases=2 bus1=BT10081.1.4 bus2=UC206065.1.4 linecode=50_2 length=0.023 units=km
New Line.RBT_205477 phases=2 bus1=ET6_3884.1.4 bus2=UC205477.1.4 linecode=50_2 length=0.03 units=km
New Line.RBT_221031 phases=2 bus1=ET6_3884.1.4 bus2=UC221031.1.4 linecode=50_2 length=0.03 units=km
New Line.RBT_628389 phases=2 bus1=ET6_3884.2.4 bus2=UC628389.2.4 linecode=50_2 length=0.02506 units=km
